examples/transmission/output/ieee118_syn.xiidm
<?xml version="1.0" encoding="UTF-8"?>
<iidm:network xmlns:iidm="http://www.powsybl.org/schema/iidm/1_15" xmlns:apc="http://www.powsybl.org/schema/iidm/ext/active_power_control/1_2" xmlns:reft="http://www.powsybl.org/schema/iidm/ext/reference_terminals/1_0" xmlns:slt="http://www.powsybl.org/schema/iidm/ext/slack_terminal/1_5" id="network" caseDate="2026-04-17T14:11:14.421Z" forecastDistance="0" sourceFormat="" minimumValidationLevel="STEADY_STATE_HYPOTHESIS">
    <iidm:substation id="s">
        <iidm:voltageLevel id="sub_0" nominalV="345.0" lowVoltageLimit="327.75" highVoltageLimit="362.25" topologyKind="BUS_BREAKER">
            <iidm:busBreakerTopology>
                <iidm:bus id="bus_0" name="Bus_0" v="336.7077285511222" angle="-16.972315833111647"/>
            </iidm:busBreakerTopology>
            <iidm:generator id="gen_0_0" name="Gen_0" energySource="OTHER" minP="-4999.0" maxP="4999.0" voltageRegulatorOn="true" targetP="62.664672174740886" targetV="345.0" targetQ="0.0" bus="bus_0" connectableBus="bus_0" p="-62.664672174740886" q="-29.89033919477065">
                <iidm:minMaxReactiveLimits minQ="-12.775684339343103" maxQ="29.89033919477065"/>
            </iidm:generator>
        </iidm:voltageLevel>
        <iidm:voltageLevel id="sub_1" nominalV="345.0" lowVoltageLimit="327.75" highVoltageLimit="362.25" topologyKind="BUS_BREAKER">
            <iidm:busBreakerTopology>
                <iidm:bus id="bus_1" name="Bus_1" v="341.5374365111223" angle="-10.337104669263312"/>
            </iidm:busBreakerTopology>
            <iidm:load id="load_1_0" name="Load_1" loadType="UNDEFINED" p0="98.56243016745904" q0="0.0" bus="bus_1" connectableBus="bus_1" p="98.56243016745904" q="0.0"/>
        </iidm:voltageLevel>
        <iidm:voltageLevel id="sub_2" nominalV="345.0" lowVoltageLimit="327.75" highVoltageLimit="362.25" topologyKind="BUS_BREAKER">
            <iidm:busBreakerTopology>
                <iidm:bus id="bus_2" name="Bus_2" v="337.8989544365304" angle="-10.183510680586348"/>
            </iidm:busBreakerTopology>
            <iidm:load id="load_2_1" name="Load_2" loadType="UNDEFINED" p0="82.42700907222569" q0="0.0" bus="bus_2" connectableBus="bus_2" p="82.42700907222569" q="0.0"/>
        </iidm:voltageLevel>
        <iidm:voltageLevel id="sub_3" nominalV="345.0" lowVoltageLimit="327.75" highVoltageLimit="362.25" topologyKind="BUS_BREAKER">
            <iidm:busBreakerTopology>
                <iidm:bus id="bus_3" name="Bus_3" v="344.5258758109958" angle="-1.1594540036513994"/>
            </iidm:busBreakerTopology>
            <iidm:generator id="gen_3_1" name="Gen_3" energySource="OTHER" minP="-4999.0" maxP="4999.0" voltageRegulatorOn="true" targetP="87.28523699000561" targetV="345.0" targetQ="0.0" bus="bus_3" connectableBus="bus_3" p="-87.28523699000561" q="-50.21195636773148">
                <iidm:minMaxReactiveLimits minQ="-8.698155947493593" maxQ="50.21195636773148"/>
            </iidm:generator>
        </iidm:voltageLevel>
        <iidm:voltageLevel id="sub_4" nominalV="345.0" lowVoltageLimit="327.75" highVoltageLimit="362.25" topologyKind="BUS_BREAKER">
            <iidm:busBreakerTopology>
                <iidm:bus id="bus_4" name="Bus_4" v="336.96332821478575" angle="-15.737984593882569"/>
            </iidm:busBreakerTopology>
            <iidm:load id="load_4_2" name="Load_4" loadType="UNDEFINED" p0="39.91061238615692" q0="0.0" bus="bus_4" connectableBus="bus_4" p="39.91061238615692" q="0.0"/>
        </iidm:voltageLevel>
        <iidm:voltageLevel id="sub_5" nominalV="345.0" lowVoltageLimit="327.75" highVoltageLimit="362.25" topologyKind="BUS_BREAKER">
            <iidm:busBreakerTopology>
                <iidm:bus id="bus_5" name="Bus_5" v="326.27261368961706" angle="-35.807481557375176"/>
            </iidm:busBreakerTopology>
            <iidm:load id="load_5_3" name="Load_5" loadType="UNDEFINED" p0="21.262010075390457" q0="0.0" bus="bus_5" connectableBus="bus_5" p="21.262010075390457" q="0.0"/>
        </iidm:voltageLevel>
        <iidm:voltageLevel id="sub_6" nominalV="345.0" lowVoltageLimit="327.75" highVoltageLimit="362.25" topologyKind="BUS_BREAKER">
            <iidm:busBreakerTopology>
                <iidm:bus id="bus_6" name="Bus_6" v="345.0" angle="-19.709110189039222"/>
            </iidm:busBreakerTopology>
            <iidm:generator id="gen_6_2" name="Gen_6" energySource="OTHER" minP="-4999.0" maxP="4999.0" voltageRegulatorOn="true" targetP="0.0" targetV="345.0" targetQ="0.0" bus="bus_6" connectableBus="bus_6" p="-0.0" q="-7.51456072606298">
                <iidm:minMaxReactiveLimits minQ="-2.8051088425459834" maxQ="175.69904674656868"/>
            </iidm:generator>
        </iidm:voltageLevel>
        <iidm:voltageLevel id="sub_7" nominalV="345.0" lowVoltageLimit="327.75" highVoltageLimit="362.25" topologyKind="BUS_BREAKER">
            <iidm:busBreakerTopology>
                <iidm:bus id="bus_7" name="Bus_7" v="327.5423340909742" angle="-18.317269216924654"/>
            </iidm:busBreakerTopology>
            <iidm:load id="load_7_4" name="Load_7" loadType="UNDEFINED" p0="73.14863462139958" q0="0.0" bus="bus_7" connectableBus="bus_7" p="73.14863462139958" q="0.0"/>
        </iidm:voltageLevel>
        <iidm:voltageLevel id="sub_8" nominalV="345.0" lowVoltageLimit="327.75" highVoltageLimit="362.25" topologyKind="BUS_BREAKER">
            <iidm:busBreakerTopology>
                <iidm:bus id="bus_8" name="Bus_8" v="343.2685966080468" angle="-2.432613072105589"/>
            </iidm:busBreakerTopology>
            <iidm:generator id="gen_8_3" name="Gen_8" energySource="OTHER" minP="-4999.0" maxP="4999.0" voltageRegulatorOn="true" targetP="153.0435391357606" targetV="345.0" targetQ="0.0" bus="bus_8" connectableBus="bus_8" p="-153.0435391357606" q="-47.81451874880837">
                <iidm:minMaxReactiveLimits minQ="-38.346573015869716" maxQ="47.81451874880837"/>
            </iidm:generator>
        </iidm:voltageLevel>
        <iidm:voltageLevel id="sub_9" nominalV="345.0" lowVoltageLimit="327.75" highVoltageLimit="362.25" topologyKind="BUS_BREAKER">
            <iidm:busBreakerTopology>
                <iidm:bus id="bus_9" name="Bus_9" v="341.43305958247504" angle="-3.677794625512959"/>
            </iidm:busBreakerTopology>
            <iidm:load id="load_9_5" name="Load_9" loadType="UNDEFINED" p0="140.86942200094532" q0="0.0" bus="bus_9" connectableBus="bus_9" p="140.86942200094532" q="0.0"/>
        </iidm:voltageLevel>
        <iidm:voltageLevel id="sub_10" nominalV="345.0" lowVoltageLimit="327.75" highVoltageLimit="362.25" topologyKind="BUS_BREAKER">
            <iidm:busBreakerTopology>
                <iidm:bus id="bus_10" name="Bus_10" v="340.1220921937824" angle="-3.9020978889649114"/>
            </iidm:busBreakerTopology>
            <iidm:generator id="gen_10_4" name="Gen_10" energySource="OTHER" minP="-4999.0" maxP="4999.0" voltageRegulatorOn="true" targetP="18.432191261677122" targetV="345.0" targetQ="0.0" bus="bus_10" connectableBus="bus_10" p="-18.432191261677122" q="-12.504271150601292">
                <iidm:minMaxReactiveLimits minQ="-4.674842521115366" maxQ="12.504271150601292"/>
            </iidm:generator>
        </iidm:voltageLevel>
        <iidm:voltageLevel id="sub_11" nominalV="345.0" lowVoltageLimit="327.75" highVoltageLimit="362.25" topologyKind="BUS_BREAKER">
            <iidm:busBreakerTopology>
                <iidm:bus id="bus_11" name="Bus_11" v="340.35143543403933" angle="-5.672154417631883"/>
            </iidm:busBreakerTopology>
            <iidm:generator id="gen_11_5" name="Gen_11" energySource="OTHER" minP="-4999.0" maxP="4999.0" voltageRegulatorOn="true" targetP="40.16601220720859" targetV="345.0" targetQ="0.0" bus="bus_11" connectableBus="bus_11" p="-40.16601220720859" q="-22.939838271084668">
                <iidm:minMaxReactiveLimits minQ="-11.601831263792663" maxQ="22.939838271084668"/>
            </iidm:generator>
        </iidm:voltageLevel>
        <iidm:voltageLevel id="sub_12" nominalV="345.0" lowVoltageLimit="327.75" highVoltageLimit="362.25" topologyKind="BUS_BREAKER">
            <iidm:busBreakerTopology>
                <iidm:bus id="bus_12" name="Bus_12" v="339.36022330465244" angle="-9.679053668907015"/>
            </iidm:busBreakerTopology>
            <iidm:load id="load_12_6" name="Load_12" loadType="UNDEFINED" p0="24.699494842109736" q0="0.0" bus="bus_12" connectableBus="bus_12" p="24.699494842109736" q="0.0"/>
        </iidm:voltageLevel>
        <iidm:voltageLevel id="sub_13" nominalV="345.0" lowVoltageLimit="327.75" highVoltageLimit="362.25" topologyKind="BUS_BREAKER">
            <iidm:busBreakerTopology>
                <iidm:bus id="bus_13" name="Bus_13" v="345.0" angle="-4.132804496675269"/>
            </iidm:busBreakerTopology>
            <iidm:generator id="gen_13_6" name="Gen_13" energySource="OTHER" minP="-4999.0" maxP="4999.0" voltageRegulatorOn="true" targetP="121.62403493131669" targetV="345.0" targetQ="0.0" bus="bus_13" connectableBus="bus_13" p="-121.62403493131669" q="-7.191207096432706">
                <iidm:minMaxReactiveLimits minQ="-33.545738146823574" maxQ="84.42518568724488"/>
            </iidm:generator>
        </iidm:voltageLevel>
        <iidm:voltageLevel id="sub_14" nominalV="161.0" lowVoltageLimit="152.95" highVoltageLimit="169.05" topologyKind="BUS_BREAKER">
            <iidm:busBreakerTopology>
                <iidm:bus id="bus_14" name="Bus_14" v="159.90195173989343" angle="-2.4757388820610524"/>
            </iidm:busBreakerTopology>
            <iidm:load id="load_14_7" name="Load_14" loadType="UNDEFINED" p0="202.6965991914392" q0="0.0" bus="bus_14" connectableBus="bus_14" p="202.6965991914392" q="0.0"/>
        </iidm:voltageLevel>
        <iidm:voltageLevel id="sub_15" nominalV="161.0" lowVoltageLimit="152.95" highVoltageLimit="169.05" topologyKind="BUS_BREAKER">
            <iidm:busBreakerTopology>
                <iidm:bus id="bus_15" name="Bus_15" v="151.46201112184065" angle="-32.44356771988083"/>
            </iidm:busBreakerTopology>
            <iidm:load id="load_15_8" name="Load_15" loadType="UNDEFINED" p0="75.88699574786945" q0="0.0" bus="bus_15" connectableBus="bus_15" p="75.88699574786945" q="0.0"/>
        </iidm:voltageLevel>
        <iidm:voltageLevel id="sub_16" nominalV="138.0" lowVoltageLimit="131.1" highVoltageLimit="144.9" topologyKind="BUS_BREAKER">
            <iidm:busBreakerTopology>
                <iidm:bus id="bus_16" name="Bus_16" v="138.0" angle="-27.612001694660766"/>
            </iidm:busBreakerTopology>
            <iidm:generator id="gen_16_7" name="Gen_16" energySource="OTHER" minP="-4999.0" maxP="4999.0" voltageRegulatorOn="true" targetP="145.2930494638106" targetV="138.0" targetQ="0.0" bus="bus_16" connectableBus="bus_16" p="-145.2930494638106" q="-5.626991549476901">
                <iidm:minMaxReactiveLimits minQ="-7.659738444079799" maxQ="71.21421004596523"/>
            </iidm:generator>
        </iidm:voltageLevel>
        <iidm:voltageLevel id="sub_17" nominalV="138.0" lowVoltageLimit="131.1" highVoltageLimit="144.9" topologyKind="BUS_BREAKER">
            <iidm:busBreakerTopology>
                <iidm:bus id="bus_17" name="Bus_17" v="138.0" angle="-22.583219752887306"/>
            </iidm:busBreakerTopology>
            <iidm:generator id="gen_17_8" name="Gen_17" energySource="OTHER" minP="-4999.0" maxP="4999.0" voltageRegulatorOn="true" targetP="166.31917552804512" targetV="138.0" targetQ="0.0" bus="bus_17" connectableBus="bus_17" p="-166.31917552804512" q="-30.153705876522707">
                <iidm:minMaxReactiveLimits minQ="-22.13408952611462" maxQ="96.27276331701053"/>
            </iidm:generator>
        </iidm:voltageLevel>
        <iidm:voltageLevel id="sub_18" nominalV="138.0" lowVoltageLimit="131.1" highVoltageLimit="144.9" topologyKind="BUS_BREAKER">
            <iidm:busBreakerTopology>
                <iidm:bus id="bus_18" name="Bus_18" v="135.50463538883088" angle="-31.82043304695735"/>
            </iidm:busBreakerTopology>
            <iidm:load id="load_18_9" name="Load_18" loadType="UNDEFINED" p0="33.658210095845305" q0="0.0" bus="bus_18" connectableBus="bus_18" p="33.658210095845305" q="0.0"/>
        </iidm:voltageLevel>
        <iidm:voltageLevel id="sub_19" nominalV="138.0" lowVoltageLimit="131.1" highVoltageLimit="144.9" topologyKind="BUS_BREAKER">
            <iidm:busBreakerTopology>
                <iidm:bus id="bus_19" name="Bus_19" v="135.25719198351524" angle="-7.654710748186561"/>
            </iidm:busBreakerTopology>
            <iidm:generator id="gen_19_9" name="Gen_19" energySource="OTHER" minP="-4999.0" maxP="4999.0" voltageRegulatorOn="true" targetP="141.59281307613622" targetV="138.0" targetQ="0.0" bus="bus_19" connectableBus="bus_19" p="-141.59281307613622" q="-87.37934757270212">
                <iidm:minMaxReactiveLimits minQ="-27.11068997431786" maxQ="87.37934757270212"/>
            </iidm:generator>
        </iidm:voltageLevel>
        <iidm:voltageLevel id="sub_20" nominalV="138.0" lowVoltageLimit="131.1" highVoltageLimit="144.9" topologyKind="BUS_BREAKER">
            <iidm:busBreakerTopology>
                <iidm:bus id="bus_20" name="Bus_20" v="138.0" angle="-2.196884197237212"/>
            </iidm:busBreakerTopology>
            <iidm:generator id="gen_20_10" name="Gen_20" energySource="OTHER" minP="-4999.0" maxP="4999.0" voltageRegulatorOn="true" targetP="90.91532645756313" targetV="138.0" targetQ="0.0" bus="bus_20" connectableBus="bus_20" p="-90.91532645756313" q="-27.58066995791868">
                <iidm:minMaxReactiveLimits minQ="-0.21854936066219363" maxQ="52.15030528481844"/>
            </iidm:generator>
        </iidm:voltageLevel>
        <iidm:voltageLevel id="sub_21" nominalV="138.0" lowVoltageLimit="131.1" highVoltageLimit="144.9" topologyKind="BUS_BREAKER">
            <iidm:busBreakerTopology>
                <iidm:bus id="bus_21" name="Bus_21" v="130.96668918870805" angle="-30.69886427164211"/>
            </iidm:busBreakerTopology>
            <iidm:load id="load_21_10" name="Load_21" loadType="UNDEFINED" p0="43.060595194263634" q0="0.0" bus="bus_21" connectableBus="bus_21" p="43.060595194263634" q="0.0"/>
        </iidm:voltageLevel>
        <iidm:voltageLevel id="sub_22" nominalV="138.0" lowVoltageLimit="131.1" highVoltageLimit="144.9" topologyKind="BUS_BREAKER">
            <iidm:busBreakerTopology>
                <iidm:bus id="bus_22" name="Bus_22" v="131.35072242964478" angle="-22.317540586987114"/>
            </iidm:busBreakerTopology>
            <iidm:generator id="gen_22_11" name="Gen_22" energySource="OTHER" minP="-4999.0" maxP="4999.0" voltageRegulatorOn="true" targetP="5.607167877328828" targetV="138.0" targetQ="0.0" bus="bus_22" connectableBus="bus_22" p="-5.607167877328828" q="-2.7400770672151147">
                <iidm:minMaxReactiveLimits minQ="-0.6936741889952363" maxQ="2.7400770672151147"/>
            </iidm:generator>
        </iidm:voltageLevel>
        <iidm:voltageLevel id="sub_23" nominalV="138.0" lowVoltageLimit="131.1" highVoltageLimit="144.9" topologyKind="BUS_BREAKER">
            <iidm:busBreakerTopology>
                <iidm:bus id="bus_23" name="Bus_23" v="134.6197815029121" angle="-19.315718399450812"/>
            </iidm:busBreakerTopology>
            <iidm:generator id="gen_23_12" name="Gen_23" energySource="OTHER" minP="-4999.0" maxP="4999.0" voltageRegulatorOn="true" targetP="162.09622643680788" targetV="138.0" targetQ="0.0" bus="bus_23" connectableBus="bus_23" p="-162.09622643680788" q="-57.49361263101703">
                <iidm:minMaxReactiveLimits minQ="-5.34071384262346" maxQ="57.49361263101703"/>
            </iidm:generator>
        </iidm:voltageLevel>
        <iidm:voltageLevel id="sub_24" nominalV="138.0" lowVoltageLimit="131.1" highVoltageLimit="144.9" topologyKind="BUS_BREAKER">
            <iidm:busBreakerTopology>
                <iidm:bus id="bus_24" name="Bus_24" v="138.0" angle="-4.127673907968813"/>
            </iidm:busBreakerTopology>
            <iidm:generator id="gen_24_13" name="Gen_24" energySource="OTHER" minP="-4999.0" maxP="4999.0" voltageRegulatorOn="true" targetP="43.612534562024045" targetV="138.0" targetQ="0.0" bus="bus_24" connectableBus="bus_24" p="-43.612534562024045" q="-16.585368920151566">
                <iidm:minMaxReactiveLimits minQ="-5.2146824975524915" maxQ="19.21548243851528"/>
            </iidm:generator>
        </iidm:voltageLevel>
        <iidm:voltageLevel id="sub_25" nominalV="138.0" lowVoltageLimit="131.1" highVoltageLimit="144.9" topologyKind="BUS_BREAKER">
            <iidm:busBreakerTopology>
                <iidm:bus id="bus_25" name="Bus_25" v="138.0" angle="-10.332714302563431"/>
            </iidm:busBreakerTopology>
            <iidm:generator id="gen_25_14" name="Gen_25" energySource="OTHER" minP="-4999.0" maxP="4999.0" voltageRegulatorOn="true" targetP="57.41701955061102" targetV="138.0" targetQ="0.0" bus="bus_25" connectableBus="bus_25" p="-57.41701955061102" q="-6.131748464188824">
                <iidm:minMaxReactiveLimits minQ="-9.618520098841877" maxQ="30.36881324851258"/>
            </iidm:generator>
        </iidm:voltageLevel>
        <iidm:voltageLevel id="sub_26" nominalV="138.0" lowVoltageLimit="131.1" highVoltageLimit="144.9" topologyKind="BUS_BREAKER">
            <iidm:busBreakerTopology>
                <iidm:bus id="bus_26" name="Bus_26" v="136.99546468976976" angle="-1.0476995925208288"/>
            </iidm:busBreakerTopology>
            <iidm:generator id="gen_26_15" name="Gen_26" energySource="OTHER" minP="-4999.0" maxP="4999.0" voltageRegulatorOn="true" targetP="129.77469901406656" targetV="138.0" targetQ="0.0" bus="bus_26" connectableBus="bus_26" p="-129.77469901406656" q="-80.44358030699463">
                <iidm:minMaxReactiveLimits minQ="-26.42364580346287" maxQ="80.44358030699463"/>
            </iidm:generator>
        </iidm:voltageLevel>
        <iidm:voltageLevel id="sub_27" nominalV="138.0" lowVoltageLimit="131.1" highVoltageLimit="144.9" topologyKind="BUS_BREAKER">
            <iidm:busBreakerTopology>
                <iidm:bus id="bus_27" name="Bus_27" v="135.63932710236426" angle="-14.936143663782818"/>
            </iidm:busBreakerTopology>
            <iidm:generator id="gen_27_16" name="Gen_27" energySource="OTHER" minP="-4999.0" maxP="4999.0" voltageRegulatorOn="true" targetP="28.30929420447393" targetV="138.0" targetQ="0.0" bus="bus_27" connectableBus="bus_27" p="-28.30929420447393" q="-15.188303265361538">
                <iidm:minMaxReactiveLimits minQ="-1.743065952487652" maxQ="15.188303265361538"/>
            </iidm:generator>
        </iidm:voltageLevel>
        <iidm:voltageLevel id="sub_28" nominalV="138.0" lowVoltageLimit="131.1" highVoltageLimit="144.9" topologyKind="BUS_BREAKER">
            <iidm:busBreakerTopology>
                <iidm:bus id="bus_28" name="Bus_28" v="134.46266986303303" angle="-19.694036526495463"/>
            </iidm:busBreakerTopology>
            <iidm:load id="load_28_11" name="Load_28" loadType="UNDEFINED" p0="302.4339944943228" q0="0.0" bus="bus_28" connectableBus="bus_28" p="302.4339944943228" q="0.0"/>
        </iidm:voltageLevel>
        <iidm:voltageLevel id="sub_29" nominalV="138.0" lowVoltageLimit="131.1" highVoltageLimit="144.9" topologyKind="BUS_BREAKER">
            <iidm:busBreakerTopology>
                <iidm:bus id="bus_29" name="Bus_29" v="137.42037579330753" angle="-24.533315301364844"/>
            </iidm:busBreakerTopology>
            <iidm:generator id="gen_29_17" name="Gen_29" energySource="OTHER" minP="-4999.0" maxP="4999.0" voltageRegulatorOn="true" targetP="21.465197264717474" targetV="138.0" targetQ="0.0" bus="bus_29" connectableBus="bus_29" p="-21.465197264717474" q="-15.446301413301743">
                <iidm:minMaxReactiveLimits minQ="-1.655969681150701" maxQ="15.446301413301745"/>
            </iidm:generator>
        </iidm:voltageLevel>
        <iidm:voltageLevel id="sub_30" nominalV="138.0" lowVoltageLimit="131.1" highVoltageLimit="144.9" topologyKind="BUS_BREAKER">
            <iidm:busBreakerTopology>
                <iidm:bus id="bus_30" name="Bus_30" v="133.85456787128282" angle="-37.71301137202509"/>
            </iidm:busBreakerTopology>
            <iidm:load id="load_30_12" name="Load_30" loadType="UNDEFINED" p0="88.31592737853704" q0="0.0" bus="bus_30" connectableBus="bus_30" p="88.31592737853704" q="0.0"/>
        </iidm:voltageLevel>
        <iidm:voltageLevel id="sub_31" nominalV="138.0" lowVoltageLimit="131.1" highVoltageLimit="144.9" topologyKind="BUS_BREAKER">
            <iidm:busBreakerTopology>
                <iidm:bus id="bus_31" name="Bus_31" v="138.0" angle="1.3420426043271434"/>
            </iidm:busBreakerTopology>
            <iidm:generator id="gen_31_18" name="Gen_31" energySource="OTHER" minP="-4999.0" maxP="4999.0" voltageRegulatorOn="true" targetP="2.9015375217230748" targetV="138.0" targetQ="0.0" bus="bus_31" connectableBus="bus_31" p="-2.9015375217230748" q="0.31322732359542194">
                <iidm:minMaxReactiveLimits minQ="-0.3715065582995444" maxQ="1.3762555235857141"/>
            </iidm:generator>
        </iidm:voltageLevel>
        <iidm:voltageLevel id="sub_32" nominalV="138.0" lowVoltageLimit="131.1" highVoltageLimit="144.9" topologyKind="BUS_BREAKER">
            <iidm:busBreakerTopology>
                <iidm:bus id="bus_32" name="Bus_32" v="138.0" angle="-13.431231370692242"/>
            </iidm:busBreakerTopology>
            <iidm:generator id="gen_32_19" name="Gen_32" energySource="OTHER" minP="-4999.0" maxP="4999.0" voltageRegulatorOn="true" targetP="91.49220772823871" targetV="138.0" targetQ="0.0" bus="bus_32" connectableBus="bus_32" p="-91.49220772823871" q="-39.30682592788719">
                <iidm:minMaxReactiveLimits minQ="-23.06263431646638" maxQ="64.12536856042493"/>
            </iidm:generator>
        </iidm:voltageLevel>
        <iidm:voltageLevel id="sub_33" nominalV="138.0" lowVoltageLimit="131.1" highVoltageLimit="144.9" topologyKind="BUS_BREAKER">
            <iidm:busBreakerTopology>
                <iidm:bus id="bus_33" name="Bus_33" v="134.3025812458946" angle="-20.078899050763074"/>
            </iidm:busBreakerTopology>
            <iidm:load id="load_33_13" name="Load_33" loadType="UNDEFINED" p0="163.75082305086892" q0="0.0" bus="bus_33" connectableBus="bus_33" p="163.75082305086892" q="0.0"/>
        </iidm:voltageLevel>
        <iidm:voltageLevel id="sub_34" nominalV="138.0" lowVoltageLimit="131.1" highVoltageLimit="144.9" topologyKind="BUS_BREAKER">
            <iidm:busBreakerTopology>
                <iidm:bus id="bus_34" name="Bus_34" v="134.906790746892" angle="4.948265053394254"/>
            </iidm:busBreakerTopology>
            <iidm:generator id="gen_34_20" name="Gen_34" energySource="OTHER" minP="-4999.0" maxP="4999.0" voltageRegulatorOn="true" targetP="18.341184352698495" targetV="138.0" targetQ="0.0" bus="bus_34" connectableBus="bus_34" p="-18.341184352698495" q="-7.713035780360135">
                <iidm:minMaxReactiveLimits minQ="-2.40535925532231" maxQ="7.713035780360135"/>
            </iidm:generator>
        </iidm:voltageLevel>
        <iidm:voltageLevel id="sub_35" nominalV="138.0" lowVoltageLimit="131.1" highVoltageLimit="144.9" topologyKind="BUS_BREAKER">
            <iidm:busBreakerTopology>
                <iidm:bus id="bus_35" name="Bus_35" v="135.69954938282436" angle="-7.466426368206354"/>
            </iidm:busBreakerTopology>
            <iidm:generator id="gen_35_21" name="Gen_35" energySource="OTHER" minP="-4999.0" maxP="4999.0" voltageRegulatorOn="true" targetP="2.956857632367145" targetV="138.0" targetQ="0.0" bus="bus_35" connectableBus="bus_35" p="-2.956857632367145" q="-1.8282090244296223">
                <iidm:minMaxReactiveLimits minQ="-0.2227283826720821" maxQ="1.8282090244296223"/>
            </iidm:generator>
        </iidm:voltageLevel>
        <iidm:voltageLevel id="sub_36" nominalV="138.0" lowVoltageLimit="131.1" highVoltageLimit="144.9" topologyKind="BUS_BREAKER">
            <iidm:busBreakerTopology>
                <iidm:bus id="bus_36" name="Bus_36" v="137.87445294689002" angle="-0.7274562825876449"/>
            </iidm:busBreakerTopology>
            <iidm:load id="load_36_14" name="Load_36" loadType="UNDEFINED" p0="40.12660005543472" q0="0.0" bus="bus_36" connectableBus="bus_36" p="40.12660005543472" q="0.0"/>
        </iidm:voltageLevel>
        <iidm:voltageLevel id="sub_37" nominalV="138.0" lowVoltageLimit="131.1" highVoltageLimit="144.9" topologyKind="BUS_BREAKER">
            <iidm:busBreakerTopology>
                <iidm:bus id="bus_37" name="Bus_37" v="138.0" angle="-26.60381354971153"/>
            </iidm:busBreakerTopology>
            <iidm:generator id="gen_37_22" name="Gen_37" energySource="OTHER" minP="-4999.0" maxP="4999.0" voltageRegulatorOn="true" targetP="0.0" targetV="138.0" targetQ="0.0" bus="bus_37" connectableBus="bus_37" p="-0.0" q="-98.80567908111732">
                <iidm:minMaxReactiveLimits minQ="-96.85028207885722" maxQ="226.1240296675347"/>
            </iidm:generator>
        </iidm:voltageLevel>
        <iidm:voltageLevel id="sub_38" nominalV="138.0" lowVoltageLimit="131.1" highVoltageLimit="144.9" topologyKind="BUS_BREAKER">
            <iidm:busBreakerTopology>
                <iidm:bus id="bus_38" name="Bus_38" v="134.9334037786474" angle="-16.3308407067127"/>
            </iidm:busBreakerTopology>
            <iidm:generator id="gen_38_23" name="Gen_38" energySource="OTHER" minP="-4999.0" maxP="4999.0" voltageRegulatorOn="true" targetP="0.0" targetV="138.0" targetQ="0.0" bus="bus_38" connectableBus="bus_38" p="-0.0" q="-1.1693777646240922">
                <iidm:minMaxReactiveLimits minQ="-0.2149160690334229" maxQ="1.1693777646240922"/>
            </iidm:generator>
        </iidm:voltageLevel>
        <iidm:voltageLevel id="sub_39" nominalV="138.0" lowVoltageLimit="131.1" highVoltageLimit="144.9" topologyKind="BUS_BREAKER">
            <iidm:busBreakerTopology>
                <iidm:bus id="bus_39" name="Bus_39" v="132.59798516833644" angle="-28.09849595095173"/>
            </iidm:busBreakerTopology>
            <iidm:load id="load_39_15" name="Load_39" loadType="UNDEFINED" p0="85.14720536312979" q0="0.0" bus="bus_39" connectableBus="bus_39" p="85.14720536312979" q="0.0"/>
        </iidm:voltageLevel>
        <iidm:voltageLevel id="sub_40" nominalV="138.0" lowVoltageLimit="131.1" highVoltageLimit="144.9" topologyKind="BUS_BREAKER">
            <iidm:busBreakerTopology>
                <iidm:bus id="bus_40" name="Bus_40" v="134.57290485327889" angle="-8.022455142301386"/>
            </iidm:busBreakerTopology>
            <iidm:load id="load_40_16" name="Load_40" loadType="UNDEFINED" p0="122.43244215310555" q0="0.0" bus="bus_40" connectableBus="bus_40" p="122.43244215310555" q="0.0"/>
        </iidm:voltageLevel>
        <iidm:voltageLevel id="sub_41" nominalV="138.0" lowVoltageLimit="131.1" highVoltageLimit="144.9" topologyKind="BUS_BREAKER">
            <iidm:busBreakerTopology>
                <iidm:bus id="bus_41" name="Bus_41" v="137.48011351166917" angle="-3.49377597866618"/>
            </iidm:busBreakerTopology>
            <iidm:generator id="gen_41_24" name="Gen_41" energySource="OTHER" minP="-4999.0" maxP="4999.0" voltageRegulatorOn="true" targetP="172.24618461746525" targetV="138.0" targetQ="0.0" bus="bus_41" connectableBus="bus_41" p="-172.24618461746525" q="-117.88327039011">
                <iidm:minMaxReactiveLimits minQ="-33.666381968935696" maxQ="117.88327039010998"/>
            </iidm:generator>
        </iidm:voltageLevel>
        <iidm:voltageLevel id="sub_42" nominalV="138.0" lowVoltageLimit="131.1" highVoltageLimit="144.9" topologyKind="BUS_BREAKER">
            <iidm:busBreakerTopology>
                <iidm:bus id="bus_42" name="Bus_42" v="138.0" angle="-13.836663553725607"/>
            </iidm:busBreakerTopology>
            <iidm:generator id="gen_42_25" name="Gen_42" energySource="OTHER" minP="-4999.0" maxP="4999.0" voltageRegulatorOn="true" targetP="62.227406611561634" targetV="138.0" targetQ="0.0" bus="bus_42" connectableBus="bus_42" p="-62.227406611561634" q="-13.934126797536784">
                <iidm:minMaxReactiveLimits minQ="-2.55816942607481" maxQ="27.64537181501976"/>
            </iidm:generator>
        </iidm:voltageLevel>
        <iidm:voltageLevel id="sub_43" nominalV="138.0" lowVoltageLimit="131.1" highVoltageLimit="144.9" topologyKind="BUS_BREAKER">
            <iidm:busBreakerTopology>
                <iidm:bus id="bus_43" name="Bus_43" v="137.2927985931813" angle="-4.42854568808271"/>
            </iidm:busBreakerTopology>
            <iidm:generator id="gen_43_26" name="Gen_43" energySource="OTHER" minP="-4999.0" maxP="4999.0" voltageRegulatorOn="true" targetP="9.91883508912235" targetV="138.0" targetQ="0.0" bus="bus_43" connectableBus="bus_43" p="-9.91883508912235" q="-4.03954921694008">
                <iidm:minMaxReactiveLimits minQ="-0.6707490269386012" maxQ="4.03954921694008"/>
            </iidm:generator>
        </iidm:voltageLevel>
        <iidm:voltageLevel id="sub_44" nominalV="138.0" lowVoltageLimit="131.1" highVoltageLimit="144.9" topologyKind="BUS_BREAKER">
            <iidm:busBreakerTopology>
                <iidm:bus id="bus_44" name="Bus_44" v="131.5208668412172" angle="-29.973086630582365"/>
            </iidm:busBreakerTopology>
            <iidm:load id="load_44_17" name="Load_44" loadType="UNDEFINED" p0="32.22190429231927" q0="0.0" bus="bus_44" connectableBus="bus_44" p="32.22190429231927" q="0.0"/>
        </iidm:voltageLevel>
        <iidm:voltageLevel id="sub_45" nominalV="138.0" lowVoltageLimit="131.1" highVoltageLimit="144.9" topologyKind="BUS_BREAKER">
            <iidm:busBreakerTopology>
                <iidm:bus id="bus_45" name="Bus_45" v="138.0" angle="0.47503855219603314"/>
            </iidm:busBreakerTopology>
            <iidm:generator id="gen_45_27" name="Gen_45" energySource="OTHER" minP="-4999.0" maxP="4999.0" voltageRegulatorOn="true" targetP="76.41488963276899" targetV="138.0" targetQ="0.0" bus="bus_45" connectableBus="bus_45" p="-76.41488963276899" q="-6.5004849158864175">
                <iidm:minMaxReactiveLimits minQ="-13.532778263785142" maxQ="45.96254777594723"/>
            </iidm:generator>
        </iidm:voltageLevel>
        <iidm:voltageLevel id="sub_46" nominalV="138.0" lowVoltageLimit="131.1" highVoltageLimit="144.9" topologyKind="BUS_BREAKER">
            <iidm:busBreakerTopology>
                <iidm:bus id="bus_46" name="Bus_46" v="131.0636141401003" angle="-17.257200893745875"/>
            </iidm:busBreakerTopology>
            <iidm:load id="load_46_18" name="Load_46" loadType="UNDEFINED" p0="667.5441272534935" q0="0.0" bus="bus_46" connectableBus="bus_46" p="667.5441272534935" q="0.0"/>
        </iidm:voltageLevel>
        <iidm:voltageLevel id="sub_47" nominalV="138.0" lowVoltageLimit="131.1" highVoltageLimit="144.9" topologyKind="BUS_BREAKER">
            <iidm:busBreakerTopology>
                <iidm:bus id="bus_47" name="Bus_47" v="138.0" angle="-17.284585496818536"/>
            </iidm:busBreakerTopology>
            <iidm:generator id="gen_47_28" name="Gen_47" energySource="OTHER" minP="-4999.0" maxP="4999.0" voltageRegulatorOn="true" targetP="47.99774851825246" targetV="138.0" targetQ="0.0" bus="bus_47" connectableBus="bus_47" p="-47.99774851825246" q="-12.7229319219194">
                <iidm:minMaxReactiveLimits minQ="-1.3319196898342487" maxQ="29.72132356616873"/>
            </iidm:generator>
        </iidm:voltageLevel>
        <iidm:voltageLevel id="sub_48" nominalV="138.0" lowVoltageLimit="131.1" highVoltageLimit="144.9" topologyKind="BUS_BREAKER">
            <iidm:busBreakerTopology>
                <iidm:bus id="bus_48" name="Bus_48" v="134.84094002279414" angle="-16.588762217580168"/>
            </iidm:busBreakerTopology>
            <iidm:generator id="gen_48_29" name="Gen_48" energySource="OTHER" minP="-4999.0" maxP="4999.0" voltageRegulatorOn="true" targetP="51.84247812181327" targetV="138.0" targetQ="0.0" bus="bus_48" connectableBus="bus_48" p="-51.84247812181327" q="-23.697233792555906">
                <iidm:minMaxReactiveLimits minQ="-11.298366721849698" maxQ="23.697233792555906"/>
            </iidm:generator>
        </iidm:voltageLevel>
        <iidm:voltageLevel id="sub_49" nominalV="138.0" lowVoltageLimit="131.1" highVoltageLimit="144.9" topologyKind="BUS_BREAKER">
            <iidm:busBreakerTopology>
                <iidm:bus id="bus_49" name="Bus_49" v="136.9029515338571" angle="-5.1011822975638275"/>
            </iidm:busBreakerTopology>
            <iidm:generator id="gen_49_30" name="Gen_49" energySource="OTHER" minP="-4999.0" maxP="4999.0" voltageRegulatorOn="true" targetP="86.50663514183587" targetV="138.0" targetQ="0.0" bus="bus_49" connectableBus="bus_49" p="-86.50663514183587" q="-46.634293421657375">
                <iidm:minMaxReactiveLimits minQ="-8.08170414528894" maxQ="46.634293421657375"/>
            </iidm:generator>
        </iidm:voltageLevel>
        <iidm:voltageLevel id="sub_50" nominalV="138.0" lowVoltageLimit="131.1" highVoltageLimit="144.9" topologyKind="BUS_BREAKER">
            <iidm:busBreakerTopology>
                <iidm:bus id="bus_50" name="Bus_50" v="134.7993184093653" angle="-17.794879415922363"/>
            </iidm:busBreakerTopology>
            <iidm:generator id="gen_50_31" name="Gen_50" energySource="OTHER" minP="-4999.0" maxP="4999.0" voltageRegulatorOn="true" targetP="54.95353729002386" targetV="138.0" targetQ="0.0" bus="bus_50" connectableBus="bus_50" p="-54.95353729002386" q="-38.362890954583165">
                <iidm:minMaxReactiveLimits minQ="-3.3465126584587304" maxQ="38.362890954583165"/>
            </iidm:generator>
        </iidm:voltageLevel>
        <iidm:voltageLevel id="sub_51" nominalV="138.0" lowVoltageLimit="131.1" highVoltageLimit="144.9" topologyKind="BUS_BREAKER">
            <iidm:busBreakerTopology>
                <iidm:bus id="bus_51" name="Bus_51" v="128.12692685544295" angle="-17.274027587244177"/>
            </iidm:busBreakerTopology>
            <iidm:load id="load_51_19" name="Load_51" loadType="UNDEFINED" p0="78.53902069511408" q0="0.0" bus="bus_51" connectableBus="bus_51" p="78.53902069511408" q="0.0"/>
        </iidm:voltageLevel>
        <iidm:voltageLevel id="sub_52" nominalV="138.0" lowVoltageLimit="131.1" highVoltageLimit="144.9" topologyKind="BUS_BREAKER">
            <iidm:busBreakerTopology>
                <iidm:bus id="bus_52" name="Bus_52" v="138.0" angle="5.580209047297123"/>
            </iidm:busBreakerTopology>
            <iidm:generator id="gen_52_32" name="Gen_52" energySource="OTHER" minP="-4999.0" maxP="4999.0" voltageRegulatorOn="true" targetP="240.78637033554455" targetV="138.0" targetQ="0.0" bus="bus_52" connectableBus="bus_52" p="-240.78637033554452" q="1.4430377896260893">
                <iidm:minMaxReactiveLimits minQ="-88.64264392004993" maxQ="169.9798248519005"/>
            </iidm:generator>
        </iidm:voltageLevel>
        <iidm:voltageLevel id="sub_53" nominalV="138.0" lowVoltageLimit="131.1" highVoltageLimit="144.9" topologyKind="BUS_BREAKER">
            <iidm:busBreakerTopology>
                <iidm:bus id="bus_53" name="Bus_53" v="138.0" angle="7.6288223425059885"/>
            </iidm:busBreakerTopology>
            <iidm:generator id="gen_53_33" name="Gen_53" energySource="OTHER" minP="-4999.0" maxP="4999.0" voltageRegulatorOn="true" targetP="88.85116935621" targetV="138.0" targetQ="0.0" bus="bus_53" connectableBus="bus_53" p="-88.85116935621" q="0.005369488080519957">
                <iidm:minMaxReactiveLimits minQ="-5.834747319841021" maxQ="33.74461806619682"/>
            </iidm:generator>
        </iidm:voltageLevel>
        <iidm:voltageLevel id="sub_54" nominalV="138.0" lowVoltageLimit="131.1" highVoltageLimit="144.9" topologyKind="BUS_BREAKER">
            <iidm:busBreakerTopology>
                <iidm:bus id="bus_54" name="Bus_54" v="137.98318112898187" angle="11.000758454749379"/>
            </iidm:busBreakerTopology>
            <iidm:generator id="gen_54_34" name="Gen_54" energySource="OTHER" minP="-4999.0" maxP="4999.0" voltageRegulatorOn="true" targetP="12.532749542476024" targetV="138.0" targetQ="0.0" bus="bus_54" connectableBus="bus_54" p="-12.532749542476024" q="-4.140453253912447">
                <iidm:minMaxReactiveLimits minQ="-1.95832641436368" maxQ="4.140453253912447"/>
            </iidm:generator>
        </iidm:voltageLevel>
        <iidm:voltageLevel id="sub_55" nominalV="138.0" lowVoltageLimit="131.1" highVoltageLimit="144.9" topologyKind="BUS_BREAKER">
            <iidm:busBreakerTopology>
                <iidm:bus id="bus_55" name="Bus_55" v="134.87418653348905" angle="-12.456411995881211"/>
            </iidm:busBreakerTopology>
            <iidm:generator id="gen_55_35" name="Gen_55" energySource="OTHER" minP="-4999.0" maxP="4999.0" voltageRegulatorOn="true" targetP="38.16115211625245" targetV="138.0" targetQ="0.0" bus="bus_55" connectableBus="bus_55" p="-38.16115211625245" q="-27.441400148262986">
                <iidm:minMaxReactiveLimits minQ="-7.124338123208572" maxQ="27.441400148262982"/>
            </iidm:generator>
        </iidm:voltageLevel>
        <iidm:voltageLevel id="sub_56" nominalV="138.0" lowVoltageLimit="131.1" highVoltageLimit="144.9" topologyKind="BUS_BREAKER">
            <iidm:busBreakerTopology>
                <iidm:bus id="bus_56" name="Bus_56" v="138.0" angle="9.056095722659673"/>
            </iidm:busBreakerTopology>
            <iidm:generator id="gen_56_36" name="Gen_56" energySource="OTHER" minP="-4999.0" maxP="4999.0" voltageRegulatorOn="true" targetP="125.00744547092108" targetV="138.0" targetQ="0.0" bus="bus_56" connectableBus="bus_56" p="-125.00744547092108" q="-10.232687082170377">
                <iidm:minMaxReactiveLimits minQ="-22.932556716747936" maxQ="68.93579259108638"/>
            </iidm:generator>
        </iidm:voltageLevel>
        <iidm:voltageLevel id="sub_57" nominalV="138.0" lowVoltageLimit="131.1" highVoltageLimit="144.9" topologyKind="BUS_BREAKER">
            <iidm:busBreakerTopology>
                <iidm:bus id="bus_57" name="Bus_57" v="138.0" angle="6.851551911959423"/>
            </iidm:busBreakerTopology>
            <iidm:generator id="gen_57_37" name="Gen_57" energySource="OTHER" minP="-4999.0" maxP="4999.0" voltageRegulatorOn="true" targetP="1181.9613943501172" targetV="138.0" targetQ="0.0" bus="bus_57" connectableBus="bus_57" p="-1181.9613943501172" q="-50.262915958654794">
                <iidm:minMaxReactiveLimits minQ="-100.47333697689719" maxQ="810.970669909361"/>
            </iidm:generator>
        </iidm:voltageLevel>
        <iidm:voltageLevel id="sub_58" nominalV="138.0" lowVoltageLimit="131.1" highVoltageLimit="144.9" topologyKind="BUS_BREAKER">
            <iidm:busBreakerTopology>
                <iidm:bus id="bus_58" name="Bus_58" v="136.16586089139875" angle="-28.565195042685804"/>
            </iidm:busBreakerTopology>
            <iidm:load id="load_58_20" name="Load_58" loadType="UNDEFINED" p0="178.1878697830708" q0="0.0" bus="bus_58" connectableBus="bus_58" p="178.1878697830708" q="0.0"/>
        </iidm:voltageLevel>
        <iidm:voltageLevel id="sub_59" nominalV="138.0" lowVoltageLimit="131.1" highVoltageLimit="144.9" topologyKind="BUS_BREAKER">
            <iidm:busBreakerTopology>
                <iidm:bus id="bus_59" name="Bus_59" v="132.67782965425383" angle="-12.602418281906749"/>
            </iidm:busBreakerTopology>
            <iidm:generator id="gen_59_38" name="Gen_59" energySource="OTHER" minP="-4999.0" maxP="4999.0" voltageRegulatorOn="true" targetP="20.284994961452213" targetV="138.0" targetQ="0.0" bus="bus_59" connectableBus="bus_59" p="-20.284994961452213" q="-8.88010990929886">
                <iidm:minMaxReactiveLimits minQ="-2.873111955355487" maxQ="8.88010990929886"/>
            </iidm:generator>
        </iidm:voltageLevel>
        <iidm:voltageLevel id="sub_60" nominalV="138.0" lowVoltageLimit="131.1" highVoltageLimit="144.9" topologyKind="BUS_BREAKER">
            <iidm:busBreakerTopology>
                <iidm:bus id="bus_60" name="Bus_60" v="138.0" angle="-32.83022305469283"/>
            </iidm:busBreakerTopology>
            <iidm:generator id="gen_60_39" name="Gen_60" energySource="OTHER" minP="-4999.0" maxP="4999.0" voltageRegulatorOn="true" targetP="203.83005899692748" targetV="138.0" targetQ="0.0" bus="bus_60" connectableBus="bus_60" p="-203.83005899692748" q="-122.83476984324295">
                <iidm:minMaxReactiveLimits minQ="-8.310922671323903" maxQ="135.79876714238853"/>
            </iidm:generator>
        </iidm:voltageLevel>
        <iidm:voltageLevel id="sub_61" nominalV="138.0" lowVoltageLimit="131.1" highVoltageLimit="144.9" topologyKind="BUS_BREAKER">
            <iidm:busBreakerTopology>
                <iidm:bus id="bus_61" name="Bus_61" v="133.15906411318622" angle="-34.085643304577644"/>
            </iidm:busBreakerTopology>
            <iidm:generator id="gen_61_40" name="Gen_61" energySource="OTHER" minP="-4999.0" maxP="4999.0" voltageRegulatorOn="true" targetP="19.83884252631458" targetV="138.0" targetQ="0.0" bus="bus_61" connectableBus="bus_61" p="-19.83884252631458" q="-7.836927978407725">
                <iidm:minMaxReactiveLimits minQ="-2.8936944524752994" maxQ="7.836927978407725"/>
            </iidm:generator>
        </iidm:voltageLevel>
        <iidm:voltageLevel id="sub_62" nominalV="138.0" lowVoltageLimit="131.1" highVoltageLimit="144.9" topologyKind="BUS_BREAKER">
            <iidm:busBreakerTopology>
                <iidm:bus id="bus_62" name="Bus_62" v="137.63276407026237" angle="-4.841356813623219"/>
            </iidm:busBreakerTopology>
            <iidm:load id="load_62_21" name="Load_62" loadType="UNDEFINED" p0="150.78448715540168" q0="0.0" bus="bus_62" connectableBus="bus_62" p="150.78448715540168" q="0.0"/>
        </iidm:voltageLevel>
        <iidm:voltageLevel id="sub_63" nominalV="138.0" lowVoltageLimit="131.1" highVoltageLimit="144.9" topologyKind="BUS_BREAKER">
            <iidm:busBreakerTopology>
                <iidm:bus id="bus_63" name="Bus_63" v="133.61949717599066" angle="-30.085243427014813"/>
            </iidm:busBreakerTopology>
            <iidm:generator id="gen_63_41" name="Gen_63" energySource="OTHER" minP="-4999.0" maxP="4999.0" voltageRegulatorOn="true" targetP="237.88542515890973" targetV="138.0" targetQ="0.0" bus="bus_63" connectableBus="bus_63" p="-237.88542515890973" q="-114.79392499341495">
                <iidm:minMaxReactiveLimits minQ="-25.11404223607254" maxQ="114.79392499341495"/>
            </iidm:generator>
        </iidm:voltageLevel>
        <iidm:voltageLevel id="sub_64" nominalV="138.0" lowVoltageLimit="131.1" highVoltageLimit="144.9" topologyKind="BUS_BREAKER">
            <iidm:busBreakerTopology>
                <iidm:bus id="bus_64" name="Bus_64" v="132.6047996440402" angle="-12.30896240645481"/>
            </iidm:busBreakerTopology>
            <iidm:load id="load_64_22" name="Load_64" loadType="UNDEFINED" p0="219.25901620633647" q0="0.0" bus="bus_64" connectableBus="bus_64" p="219.25901620633647" q="0.0"/>
        </iidm:voltageLevel>
        <iidm:voltageLevel id="sub_65" nominalV="138.0" lowVoltageLimit="131.1" highVoltageLimit="144.9" topologyKind="BUS_BREAKER">
            <iidm:busBreakerTopology>
                <iidm:bus id="bus_65" name="Bus_65" v="137.8325968214381" angle="-0.06678135154802835"/>
            </iidm:busBreakerTopology>
            <iidm:load id="load_65_23" name="Load_65" loadType="UNDEFINED" p0="4.299139506968661" q0="0.0" bus="bus_65" connectableBus="bus_65" p="4.299139506968661" q="0.0"/>
        </iidm:voltageLevel>
        <iidm:voltageLevel id="sub_66" nominalV="138.0" lowVoltageLimit="131.1" highVoltageLimit="144.9" topologyKind="BUS_BREAKER">
            <iidm:busBreakerTopology>
                <iidm:bus id="bus_66" name="Bus_66" v="136.7069837925838" angle="-4.56378758767602"/>
            </iidm:busBreakerTopology>
            <iidm:load id="load_66_24" name="Load_66" loadType="UNDEFINED" p0="660.049848420603" q0="0.0" bus="bus_66" connectableBus="bus_66" p="660.049848420603" q="0.0"/>
        </iidm:voltageLevel>
        <iidm:voltageLevel id="sub_67" nominalV="138.0" lowVoltageLimit="131.1" highVoltageLimit="144.9" topologyKind="BUS_BREAKER">
            <iidm:busBreakerTopology>
                <iidm:bus id="bus_67" name="Bus_67" v="134.89266296053924" angle="-17.015050996468837"/>
            </iidm:busBreakerTopology>
            <iidm:generator id="gen_67_42" name="Gen_67" energySource="OTHER" minP="-4999.0" maxP="4999.0" voltageRegulatorOn="true" targetP="96.35464866219093" targetV="138.0" targetQ="0.0" bus="bus_67" connectableBus="bus_67" p="-96.35464866219093" q="-67.49977147765331">
                <iidm:minMaxReactiveLimits minQ="-25.394021280743605" maxQ="67.49977147765331"/>
            </iidm:generator>
        </iidm:voltageLevel>
        <iidm:voltageLevel id="sub_68" nominalV="138.0" lowVoltageLimit="131.1" highVoltageLimit="144.9" topologyKind="BUS_BREAKER">
            <iidm:busBreakerTopology>
                <iidm:bus id="bus_68" name="Bus_68" v="134.4828929045152" angle="-17.725144473770328"/>
            </iidm:busBreakerTopology>
            <iidm:load id="load_68_25" name="Load_68" loadType="UNDEFINED" p0="83.15061330944057" q0="0.0" bus="bus_68" connectableBus="bus_68" p="83.15061330944057" q="0.0"/>
        </iidm:voltageLevel>
        <iidm:voltageLevel id="sub_69" nominalV="138.0" lowVoltageLimit="131.1" highVoltageLimit="144.9" topologyKind="BUS_BREAKER">
            <iidm:busBreakerTopology>
                <iidm:bus id="bus_69" name="Bus_69" v="134.79038935131953" angle="-18.38556622070863"/>
            </iidm:busBreakerTopology>
            <iidm:generator id="gen_69_43" name="Gen_69" energySource="OTHER" minP="-4999.0" maxP="4999.0" voltageRegulatorOn="true" targetP="0.0" targetV="138.0" targetQ="0.0" bus="bus_69" connectableBus="bus_69" p="-0.0" q="-167.08315533666521">
                <iidm:minMaxReactiveLimits minQ="-15.668488946060318" maxQ="167.08315533666521"/>
            </iidm:generator>
        </iidm:voltageLevel>
        <iidm:voltageLevel id="sub_70" nominalV="138.0" lowVoltageLimit="131.1" highVoltageLimit="144.9" topologyKind="BUS_BREAKER">
            <iidm:busBreakerTopology>
                <iidm:bus id="bus_70" name="Bus_70" v="127.74272749722186" angle="-42.3167594550198"/>
            </iidm:busBreakerTopology>
            <iidm:load id="load_70_26" name="Load_70" loadType="UNDEFINED" p0="76.61037332401766" q0="0.0" bus="bus_70" connectableBus="bus_70" p="76.61037332401766" q="0.0"/>
        </iidm:voltageLevel>
        <iidm:voltageLevel id="sub_71" nominalV="138.0" lowVoltageLimit="131.1" highVoltageLimit="144.9" topologyKind="BUS_BREAKER">
            <iidm:busBreakerTopology>
                <iidm:bus id="bus_71" name="Bus_71" v="138.0" angle="0.0"/>
            </iidm:busBreakerTopology>
            <iidm:generator id="gen_71_0" name="Ext_Grid_71" energySource="OTHER" minP="-4999.0" maxP="4999.0" voltageRegulatorOn="true" targetP="1.0E-4" targetV="138.0" targetQ="0.0" bus="bus_71" connectableBus="bus_71" p="-2495.6522988417214" q="-426.1623372433023">
                <iidm:minMaxReactiveLimits minQ="-482.8773380022657" maxQ="683.0091721002194"/>
            </iidm:generator>
        </iidm:voltageLevel>
        <iidm:voltageLevel id="sub_72" nominalV="138.0" lowVoltageLimit="131.1" highVoltageLimit="144.9" topologyKind="BUS_BREAKER">
            <iidm:busBreakerTopology>
                <iidm:bus id="bus_72" name="Bus_72" v="137.49007971764715" angle="0.7470234973882002"/>
            </iidm:busBreakerTopology>
            <iidm:generator id="gen_72_44" name="Gen_72" energySource="OTHER" minP="-4999.0" maxP="4999.0" voltageRegulatorOn="true" targetP="17.79470592749789" targetV="138.0" targetQ="0.0" bus="bus_72" connectableBus="bus_72" p="-17.79470592749789" q="-12.323886320122844">
                <iidm:minMaxReactiveLimits minQ="-3.132158517602193" maxQ="12.323886320122844"/>
            </iidm:generator>
        </iidm:voltageLevel>
        <iidm:voltageLevel id="sub_73" nominalV="138.0" lowVoltageLimit="131.1" highVoltageLimit="144.9" topologyKind="BUS_BREAKER">
            <iidm:busBreakerTopology>
                <iidm:bus id="bus_73" name="Bus_73" v="138.0" angle="-7.342067478069245"/>
            </iidm:busBreakerTopology>
            <iidm:generator id="gen_73_45" name="Gen_73" energySource="OTHER" minP="-4999.0" maxP="4999.0" voltageRegulatorOn="true" targetP="123.38488790300725" targetV="138.0" targetQ="0.0" bus="bus_73" connectableBus="bus_73" p="-123.38488790300725" q="-20.003811441032937">
                <iidm:minMaxReactiveLimits minQ="-13.536377690640998" maxQ="88.85974737510625"/>
            </iidm:generator>
        </iidm:voltageLevel>
        <iidm:voltageLevel id="sub_74" nominalV="138.0" lowVoltageLimit="131.1" highVoltageLimit="144.9" topologyKind="BUS_BREAKER">
            <iidm:busBreakerTopology>
                <iidm:bus id="bus_74" name="Bus_74" v="132.88975469828327" angle="-27.306625866291583"/>
            </iidm:busBreakerTopology>
            <iidm:load id="load_74_27" name="Load_74" loadType="UNDEFINED" p0="151.73654725101127" q0="0.0" bus="bus_74" connectableBus="bus_74" p="151.73654725101127" q="0.0"/>
        </iidm:voltageLevel>
        <iidm:voltageLevel id="sub_75" nominalV="138.0" lowVoltageLimit="131.1" highVoltageLimit="144.9" topologyKind="BUS_BREAKER">
            <iidm:busBreakerTopology>
                <iidm:bus id="bus_75" name="Bus_75" v="132.96645965327184" angle="-24.24628096936982"/>
            </iidm:busBreakerTopology>
            <iidm:load id="load_75_28" name="Load_75" loadType="UNDEFINED" p0="75.54477114581911" q0="0.0" bus="bus_75" connectableBus="bus_75" p="75.54477114581911" q="0.0"/>
        </iidm:voltageLevel>
        <iidm:voltageLevel id="sub_76" nominalV="138.0" lowVoltageLimit="131.1" highVoltageLimit="144.9" topologyKind="BUS_BREAKER">
            <iidm:busBreakerTopology>
                <iidm:bus id="bus_76" name="Bus_76" v="134.18335528140338" angle="-20.93852239092639"/>
            </iidm:busBreakerTopology>
            <iidm:load id="load_76_29" name="Load_76" loadType="UNDEFINED" p0="319.7744844058082" q0="0.0" bus="bus_76" connectableBus="bus_76" p="319.7744844058082" q="0.0"/>
        </iidm:voltageLevel>
        <iidm:voltageLevel id="sub_77" nominalV="138.0" lowVoltageLimit="131.1" highVoltageLimit="144.9" topologyKind="BUS_BREAKER">
            <iidm:busBreakerTopology>
                <iidm:bus id="bus_77" name="Bus_77" v="138.0295732649856" angle="5.4617450381218005"/>
            </iidm:busBreakerTopology>
            <iidm:generator id="gen_77_46" name="Gen_77" energySource="OTHER" minP="-4999.0" maxP="4999.0" voltageRegulatorOn="true" targetP="84.98077914486956" targetV="138.0" targetQ="0.0" bus="bus_77" connectableBus="bus_77" p="-84.98077914486956" q="2.484665553123791">
                <iidm:minMaxReactiveLimits minQ="-2.484665553123791" maxQ="37.61974534631357"/>
            </iidm:generator>
        </iidm:voltageLevel>
        <iidm:voltageLevel id="sub_78" nominalV="138.0" lowVoltageLimit="131.1" highVoltageLimit="144.9" topologyKind="BUS_BREAKER">
            <iidm:busBreakerTopology>
                <iidm:bus id="bus_78" name="Bus_78" v="138.0" angle="17.391761938333623"/>
            </iidm:busBreakerTopology>
            <iidm:generator id="gen_78_47" name="Gen_78" energySource="OTHER" minP="-4999.0" maxP="4999.0" voltageRegulatorOn="true" targetP="106.45206616364577" targetV="138.0" targetQ="0.0" bus="bus_78" connectableBus="bus_78" p="-106.45206616364578" q="8.442739670887534">
                <iidm:minMaxReactiveLimits minQ="-26.446692604008746" maxQ="42.443452535639274"/>
            </iidm:generator>
        </iidm:voltageLevel>
        <iidm:voltageLevel id="sub_79" nominalV="138.0" lowVoltageLimit="131.1" highVoltageLimit="144.9" topologyKind="BUS_BREAKER">
            <iidm:busBreakerTopology>
                <iidm:bus id="bus_79" name="Bus_79" v="130.51300964572258" angle="-35.654013608222016"/>
            </iidm:busBreakerTopology>
            <iidm:load id="load_79_30" name="Load_79" loadType="UNDEFINED" p0="1267.406197507603" q0="0.0" bus="bus_79" connectableBus="bus_79" p="1267.406197507603" q="0.0"/>
        </iidm:voltageLevel>
        <iidm:voltageLevel id="sub_80" nominalV="138.0" lowVoltageLimit="131.1" highVoltageLimit="144.9" topologyKind="BUS_BREAKER">
            <iidm:busBreakerTopology>
                <iidm:bus id="bus_80" name="Bus_80" v="134.86685836338697" angle="-14.92161889367391"/>
            </iidm:busBreakerTopology>
            <iidm:generator id="gen_80_48" name="Gen_80" energySource="OTHER" minP="-4999.0" maxP="4999.0" voltageRegulatorOn="true" targetP="34.8438305494346" targetV="138.0" targetQ="0.0" bus="bus_80" connectableBus="bus_80" p="-34.8438305494346" q="-23.34138119284085">
                <iidm:minMaxReactiveLimits minQ="-8.259912256490635" maxQ="23.34138119284085"/>
            </iidm:generator>
        </iidm:voltageLevel>
        <iidm:voltageLevel id="sub_81" nominalV="138.0" lowVoltageLimit="131.1" highVoltageLimit="144.9" topologyKind="BUS_BREAKER">
            <iidm:busBreakerTopology>
                <iidm:bus id="bus_81" name="Bus_81" v="133.28211799825775" angle="-28.00956925597645"/>
            </iidm:busBreakerTopology>
            <iidm:load id="load_81_31" name="Load_81" loadType="UNDEFINED" p0="124.75028516219292" q0="0.0" bus="bus_81" connectableBus="bus_81" p="124.75028516219292" q="0.0"/>
        </iidm:voltageLevel>
        <iidm:voltageLevel id="sub_82" nominalV="138.0" lowVoltageLimit="131.1" highVoltageLimit="144.9" topologyKind="BUS_BREAKER">
            <iidm:busBreakerTopology>
                <iidm:bus id="bus_82" name="Bus_82" v="137.9603666982831" angle="4.494307898810866"/>
            </iidm:busBreakerTopology>
            <iidm:generator id="gen_82_49" name="Gen_82" energySource="OTHER" minP="-4999.0" maxP="4999.0" voltageRegulatorOn="true" targetP="6.270790020941709" targetV="138.0" targetQ="0.0" bus="bus_82" connectableBus="bus_82" p="-6.27079002094171" q="-3.8121583803448935">
                <iidm:minMaxReactiveLimits minQ="-1.4657752082873916" maxQ="3.812158380344893"/>
            </iidm:generator>
        </iidm:voltageLevel>
        <iidm:voltageLevel id="sub_83" nominalV="138.0" lowVoltageLimit="131.1" highVoltageLimit="144.9" topologyKind="BUS_BREAKER">
            <iidm:busBreakerTopology>
                <iidm:bus id="bus_83" name="Bus_83" v="135.9635929663192" angle="-6.108102144265251"/>
            </iidm:busBreakerTopology>
            <iidm:load id="load_83_32" name="Load_83" loadType="UNDEFINED" p0="244.4475588717411" q0="0.0" bus="bus_83" connectableBus="bus_83" p="244.4475588717411" q="0.0"/>
        </iidm:voltageLevel>
        <iidm:voltageLevel id="sub_84" nominalV="138.0" lowVoltageLimit="131.1" highVoltageLimit="144.9" topologyKind="BUS_BREAKER">
            <iidm:busBreakerTopology>
                <iidm:bus id="bus_84" name="Bus_84" v="130.05193625988693" angle="-29.58008585774967"/>
            </iidm:busBreakerTopology>
            <iidm:load id="load_84_33" name="Load_84" loadType="UNDEFINED" p0="184.5215439295256" q0="0.0" bus="bus_84" connectableBus="bus_84" p="184.5215439295256" q="0.0"/>
        </iidm:voltageLevel>
        <iidm:voltageLevel id="sub_85" nominalV="138.0" lowVoltageLimit="131.1" highVoltageLimit="144.9" topologyKind="BUS_BREAKER">
            <iidm:busBreakerTopology>
                <iidm:bus id="bus_85" name="Bus_85" v="138.0" angle="5.926367523964759"/>
            </iidm:busBreakerTopology>
            <iidm:generator id="gen_85_50" name="Gen_85" energySource="OTHER" minP="-4999.0" maxP="4999.0" voltageRegulatorOn="true" targetP="75.08161436150333" targetV="138.0" targetQ="0.0" bus="bus_85" connectableBus="bus_85" p="-75.08161436150333" q="-0.8896657325061286">
                <iidm:minMaxReactiveLimits minQ="-21.26881624140381" maxQ="54.652777574006834"/>
            </iidm:generator>
        </iidm:voltageLevel>
        <iidm:voltageLevel id="sub_86" nominalV="138.0" lowVoltageLimit="131.1" highVoltageLimit="144.9" topologyKind="BUS_BREAKER">
            <iidm:busBreakerTopology>
                <iidm:bus id="bus_86" name="Bus_86" v="138.0" angle="3.175330568941038"/>
            </iidm:busBreakerTopology>
            <iidm:generator id="gen_86_51" name="Gen_86" energySource="OTHER" minP="-4999.0" maxP="4999.0" voltageRegulatorOn="true" targetP="11.245586898647016" targetV="138.0" targetQ="0.0" bus="bus_86" connectableBus="bus_86" p="-11.245586898647016" q="-2.271299548579031">
                <iidm:minMaxReactiveLimits minQ="-1.7092628052825072" maxQ="5.7326651256233"/>
            </iidm:generator>
        </iidm:voltageLevel>
        <iidm:voltageLevel id="sub_87" nominalV="138.0" lowVoltageLimit="131.1" highVoltageLimit="144.9" topologyKind="BUS_BREAKER">
            <iidm:busBreakerTopology>
                <iidm:bus id="bus_87" name="Bus_87" v="129.30961535775165" angle="-22.61365513704039"/>
            </iidm:busBreakerTopology>
            <iidm:load id="load_87_34" name="Load_87" loadType="UNDEFINED" p0="162.90360898725004" q0="0.0" bus="bus_87" connectableBus="bus_87" p="162.90360898725004" q="0.0"/>
        </iidm:voltageLevel>
        <iidm:voltageLevel id="sub_88" nominalV="138.0" lowVoltageLimit="131.1" highVoltageLimit="144.9" topologyKind="BUS_BREAKER">
            <iidm:busBreakerTopology>
                <iidm:bus id="bus_88" name="Bus_88" v="136.5473133424744" angle="-10.21174466544475"/>
            </iidm:busBreakerTopology>
            <iidm:load id="load_88_35" name="Load_88" loadType="UNDEFINED" p0="12.88410556634293" q0="0.0" bus="bus_88" connectableBus="bus_88" p="12.88410556634293" q="0.0"/>
        </iidm:voltageLevel>
        <iidm:voltageLevel id="sub_89" nominalV="138.0" lowVoltageLimit="131.1" highVoltageLimit="144.9" topologyKind="BUS_BREAKER">
            <iidm:busBreakerTopology>
                <iidm:bus id="bus_89" name="Bus_89" v="138.0" angle="-0.39479970139236303"/>
            </iidm:busBreakerTopology>
            <iidm:generator id="gen_89_52" name="Gen_89" energySource="OTHER" minP="-4999.0" maxP="4999.0" voltageRegulatorOn="true" targetP="31.454363620684685" targetV="138.0" targetQ="0.0" bus="bus_89" connectableBus="bus_89" p="-31.454363620684685" q="-3.3596178450890024">
                <iidm:minMaxReactiveLimits minQ="-5.163705015531035" maxQ="20.269774616166096"/>
            </iidm:generator>
        </iidm:voltageLevel>
        <iidm:voltageLevel id="sub_90" nominalV="138.0" lowVoltageLimit="131.1" highVoltageLimit="144.9" topologyKind="BUS_BREAKER">
            <iidm:busBreakerTopology>
                <iidm:bus id="bus_90" name="Bus_90" v="134.70456023788165" angle="-23.040616181276697"/>
            </iidm:busBreakerTopology>
            <iidm:generator id="gen_90_53" name="Gen_90" energySource="OTHER" minP="-4999.0" maxP="4999.0" voltageRegulatorOn="true" targetP="38.567463109248095" targetV="138.0" targetQ="0.0" bus="bus_90" connectableBus="bus_90" p="-38.567463109248095" q="-18.36296390635108">
                <iidm:minMaxReactiveLimits minQ="-0.72819859045804" maxQ="18.36296390635108"/>
            </iidm:generator>
        </iidm:voltageLevel>
        <iidm:voltageLevel id="sub_91" nominalV="138.0" lowVoltageLimit="131.1" highVoltageLimit="144.9" topologyKind="BUS_BREAKER">
            <iidm:busBreakerTopology>
                <iidm:bus id="bus_91" name="Bus_91" v="134.35060553239978" angle="-22.364666976314936"/>
...